obj01
  PyMOL2.5          3D                             0

  3  2  0  0  0  0  0  0  0  0999 V2000
   10.0268   39.2438   15.5315 H   0  0  0  0  0  0  0  0  0  0  0  0
   10.9475   39.4611   14.2811 H   0  0  0  0  0  0  0  0  0  0  0  0
   10.2328   38.9344   14.6464 O   0  0  0  0  0  0  0  0  0  0  0  0
  1  3  1  0  0  0  0
  2  3  1  0  0  0  0
M  END
$$$$
